<?xml version="1.0" encoding="utf-8"?>
<!DOCTYPE population SYSTEM "http://www.matsim.org/files/dtd/population_v5.dtd">

<population>

<!-- ====================================================================== -->

	<person id="1" employed="yes">
		<plan selected="yes">
			<act type="h" x="0.0" y="0.0" link="1" end_time="06:00:00" />
			<leg mode="car">
				<route type="links">1 2 3 4 5 6 7 8 9</route>
			</leg>
			<act type="w" x="100000.0" y="100000.0" end_time="16:00:00" />
			<leg mode="car">
				<route type="links">9 8 7 6 5 4 3 2 1</route>
			</leg>
			<act type="h" x="0.0" y="0.0" />
			<leg mode="car">
			</leg>
		</plan>

	</person>

<!-- ====================================================================== -->

	<person id="10" employed="yes">
		<plan selected="yes">
			<act type="h" x="0.0" y="0.0" end_time="06:00:00" />
			<leg mode="car">
			</leg>
			<act type="w" x="100000.0" y="100000.0" end_time="16:00:00" />
			<leg mode="car">
			</leg>
			<act type="h" x="0.0" y="0.0" />
			<leg mode="car">
			</leg>
		</plan>

	</person>

<!-- ====================================================================== -->

	<person id="11" employed="yes">
		<plan selected="yes">
			<act type="h" x="0.0" y="0.0" end_time="06:00:00" />
			<leg mode="car">
			</leg>
			<act type="w" x="100000.0" y="100000.0" end_time="16:00:00" />
			<leg mode="car">
			</leg>
			<act type="h" x="0.0" y="0.0" />
			<leg mode="car">
			</leg>
		</plan>

	</person>

<!-- ====================================================================== -->

	<person id="12" employed="yes">
		<plan selected="yes">
			<act type="h" x="0.0" y="0.0" end_time="06:00:00" />
			<leg mode="car">
			</leg>
			<act type="w" x="100000.0" y="100000.0" end_time="16:00:00" />
			<leg mode="car">
			</leg>
			<act type="h" x="0.0" y="0.0" />
			<leg mode="car">
			</leg>
		</plan>

	</person>

<!-- ====================================================================== -->

	<person id="13" employed="yes">
		<plan selected="yes">
			<act type="h" x="0.0" y="0.0" end_time="06:00:00" />
			<leg mode="car">
			</leg>
			<act type="w" x="100000.0" y="100000.0" end_time="16:00:00" />
			<leg mode="car">
			</leg>
			<act type="h" x="0.0" y="0.0" />
			<leg mode="car">
			</leg>
		</plan>

	</person>

<!-- ====================================================================== -->

	<person id="14" employed="yes">
		<plan selected="yes">
			<act type="h" x="0.0" y="0.0" end_time="06:00:00" />
			<leg mode="car">
			</leg>
			<act type="w" x="100000.0" y="100000.0" end_time="16:00:00" />
			<leg mode="car">
			</leg>
			<act type="h" x="0.0" y="0.0" />
			<leg mode="car">
			</leg>
		</plan>

	</person>

<!-- ====================================================================== -->

	<person id="15" employed="yes">
		<plan selected="yes">
			<act type="h" x="0.0" y="0.0" end_time="06:00:00" />
			<leg mode="car">
			</leg>
			<act type="w" x="100000.0" y="100000.0" end_time="16:00:00" />
			<leg mode="car">
			</leg>
			<act type="h" x="0.0" y="0.0" />
			<leg mode="car">
			</leg>
		</plan>

	</person>

<!-- ====================================================================== -->

	<person id="16" employed="yes">
		<plan selected="yes">
			<act type="h" x="0.0" y="0.0" end_time="06:00:00" />
			<leg mode="car">
			</leg>
			<act type="w" x="100000.0" y="100000.0" end_time="16:00:00" />
			<leg mode="car">
			</leg>
			<act type="h" x="0.0" y="0.0" />
			<leg mode="car">
			</leg>
		</plan>

	</person>

<!-- ====================================================================== -->

	<person id="17" employed="yes">
		<plan selected="yes">
			<act type="h" x="0.0" y="0.0" end_time="06:00:00" />
			<leg mode="car">
			</leg>
			<act type="w" x="100000.0" y="100000.0" end_time="16:00:00" />
			<leg mode="car">
			</leg>
			<act type="h" x="0.0" y="0.0" />
			<leg mode="car">
			</leg>
		</plan>

	</person>

<!-- ====================================================================== -->

	<person id="18" employed="yes">
		<plan selected="yes">
			<act type="h" x="0.0" y="0.0" end_time="06:00:00" />
			<leg mode="car">
			</leg>
			<act type="w" x="100000.0" y="100000.0" end_time="16:00:00" />
			<leg mode="car">
			</leg>
			<act type="h" x="0.0" y="0.0" />
			<leg mode="car">
			</leg>
		</plan>

	</person>

<!-- ====================================================================== -->

	<person id="19" employed="yes">
		<plan selected="yes">
			<act type="h" x="0.0" y="0.0" end_time="06:00:00" />
			<leg mode="car">
			</leg>
			<act type="w" x="100000.0" y="100000.0" end_time="16:00:00" />
			<leg mode="car">
			</leg>
			<act type="h" x="0.0" y="0.0" />
			<leg mode="car">
			</leg>
		</plan>

	</person>

<!-- ====================================================================== -->

	<person id="2" employed="yes">
		<plan selected="yes">
			<act type="h" x="0.0" y="0.0" end_time="06:00:00" />
			<leg mode="car">
			</leg>
			<act type="w" x="100000.0" y="100000.0" end_time="16:00:00" />
			<leg mode="car">
			</leg>
			<act type="h" x="0.0" y="0.0" />
			<leg mode="car">
			</leg>
		</plan>

	</person>

<!-- ====================================================================== -->

	<person id="20" employed="yes">
		<plan selected="yes">
			<act type="h" x="0.0" y="0.0" end_time="06:00:00" />
			<leg mode="car">
			</leg>
			<act type="w" x="100000.0" y="100000.0" end_time="16:00:00" />
			<leg mode="car">
			</leg>
			<act type="h" x="0.0" y="0.0" />
			<leg mode="car">
			</leg>
		</plan>

	</person>

<!-- ====================================================================== -->

	<person id="21" employed="yes">
		<plan selected="yes">
			<act type="h" x="0.0" y="0.0" end_time="06:00:00" />
			<leg mode="car">
			</leg>
			<act type="w" x="100000.0" y="100000.0" end_time="16:00:00" />
			<leg mode="car">
			</leg>
			<act type="h" x="0.0" y="0.0" />
			<leg mode="car">
			</leg>
		</plan>

	</person>

<!-- ====================================================================== -->

	<person id="22" employed="yes">
		<plan selected="yes">
			<act type="h" x="0.0" y="0.0" end_time="06:00:00" />
			<leg mode="car">
			</leg>
			<act type="w" x="100000.0" y="100000.0" end_time="16:00:00" />
			<leg mode="car">
			</leg>
			<act type="h" x="0.0" y="0.0" />
			<leg mode="car">
			</leg>
		</plan>

	</person>

<!-- ====================================================================== -->

	<person id="23" employed="yes">
		<plan selected="yes">
			<act type="h" x="0.0" y="0.0" end_time="06:00:00" />
			<leg mode="car">
			</leg>
			<act type="w" x="100000.0" y="100000.0" end_time="16:00:00" />
			<leg mode="car">
			</leg>
			<act type="h" x="0.0" y="0.0" />
			<leg mode="car">
			</leg>
		</plan>

	</person>

<!-- ====================================================================== -->

	<person id="24" employed="yes">
		<plan selected="yes">
			<act type="h" x="0.0" y="0.0" end_time="06:00:00" />
			<leg mode="car">
			</leg>
			<act type="w" x="100000.0" y="100000.0" end_time="16:00:00" />
			<leg mode="car">
			</leg>
			<act type="h" x="0.0" y="0.0" />
			<leg mode="car">
			</leg>
		</plan>

	</person>

<!-- ====================================================================== -->

	<person id="25" employed="yes">
		<plan selected="yes">
			<act type="h" x="0.0" y="0.0" end_time="06:00:00" />
			<leg mode="car">
			</leg>
			<act type="w" x="100000.0" y="100000.0" end_time="16:00:00" />
			<leg mode="car">
			</leg>
			<act type="h" x="0.0" y="0.0" />
			<leg mode="car">
			</leg>
		</plan>

	</person>

<!-- ====================================================================== -->

	<person id="26" employed="yes">
		<plan selected="yes">
			<act type="h" x="0.0" y="0.0" end_time="06:00:00" />
			<leg mode="car">
			</leg>
			<act type="w" x="100000.0" y="100000.0" end_time="16:00:00" />
			<leg mode="car">
			</leg>
			<act type="h" x="0.0" y="0.0" />
			<leg mode="car">
			</leg>
		</plan>

	</person>

<!-- ====================================================================== -->

	<person id="27" employed="yes">
		<plan selected="yes">
			<act type="h" x="0.0" y="0.0" end_time="06:00:00" />
			<leg mode="car">
			</leg>
			<act type="w" x="100000.0" y="100000.0" end_time="16:00:00" />
			<leg mode="car">
			</leg>
			<act type="h" x="0.0" y="0.0" />
			<leg mode="car">
			</leg>
		</plan>

	</person>

<!-- ====================================================================== -->

	<person id="28" employed="yes">
		<plan selected="yes">
			<act type="h" x="0.0" y="0.0" end_time="06:00:00" />
			<leg mode="car">
			</leg>
			<act type="w" x="100000.0" y="100000.0" end_time="16:00:00" />
			<leg mode="car">
			</leg>
			<act type="h" x="0.0" y="0.0" />
			<leg mode="car">
			</leg>
		</plan>

	</person>

<!-- ====================================================================== -->

	<person id="29" employed="yes">
		<plan selected="yes">
			<act type="h" x="0.0" y="0.0" end_time="06:00:00" />
			<leg mode="car">
			</leg>
			<act type="w" x="100000.0" y="100000.0" end_time="16:00:00" />
			<leg mode="car">
			</leg>
			<act type="h" x="0.0" y="0.0" />
			<leg mode="car">
			</leg>
		</plan>

	</person>

<!-- ====================================================================== -->

	<person id="3" employed="yes">
		<plan selected="yes">
			<act type="h" x="0.0" y="0.0" end_time="06:00:00" />
			<leg mode="car">
			</leg>
			<act type="w" x="100000.0" y="100000.0" end_time="16:00:00" />
			<leg mode="car">
			</leg>
			<act type="h" x="0.0" y="0.0" />
			<leg mode="car">
			</leg>
		</plan>

	</person>

<!-- ====================================================================== -->

	<person id="30" employed="yes">
		<plan selected="yes">
			<act type="h" x="0.0" y="0.0" end_time="06:00:00" />
			<leg mode="car">
			</leg>
			<act type="w" x="100000.0" y="100000.0" end_time="16:00:00" />
			<leg mode="car">
			</leg>
			<act type="h" x="0.0" y="0.0" />
			<leg mode="car">
			</leg>
		</plan>

	</person>

<!-- ====================================================================== -->

	<person id="31" employed="yes">
		<plan selected="yes">
			<act type="h" x="0.0" y="0.0" end_time="06:00:00" />
			<leg mode="car">
			</leg>
			<act type="w" x="100000.0" y="100000.0" end_time="16:00:00" />
			<leg mode="car">
			</leg>
			<act type="h" x="0.0" y="0.0" />
			<leg mode="car">
			</leg>
		</plan>

	</person>

<!-- ====================================================================== -->

	<person id="32" employed="yes">
		<plan selected="yes">
			<act type="h" x="0.0" y="0.0" end_time="06:00:00" />
			<leg mode="car">
			</leg>
			<act type="w" x="100000.0" y="100000.0" end_time="16:00:00" />
			<leg mode="car">
			</leg>
			<act type="h" x="0.0" y="0.0" />
			<leg mode="car">
			</leg>
		</plan>

	</person>

<!-- ====================================================================== -->

	<person id="33" employed="yes">
		<plan selected="yes">
			<act type="h" x="0.0" y="0.0" end_time="06:00:00" />
			<leg mode="car">
			</leg>
			<act type="w" x="100000.0" y="100000.0" end_time="16:00:00" />
			<leg mode="car">
			</leg>
			<act type="h" x="0.0" y="0.0" />
			<leg mode="car">
			</leg>
		</plan>

	</person>

<!-- ====================================================================== -->

	<person id="34" employed="yes">
		<plan selected="yes">
			<act type="h" x="0.0" y="0.0" end_time="06:00:00" />
			<leg mode="car">
			</leg>
			<act type="w" x="100000.0" y="100000.0" end_time="16:00:00" />
			<leg mode="car">
			</leg>
			<act type="h" x="0.0" y="0.0" />
			<leg mode="car">
			</leg>
		</plan>

	</person>

<!-- ====================================================================== -->

	<person id="35" employed="yes">
		<plan selected="yes">
			<act type="h" x="0.0" y="0.0" end_time="06:00:00" />
			<leg mode="car">
			</leg>
			<act type="w" x="100000.0" y="100000.0" end_time="16:00:00" />
			<leg mode="car">
			</leg>
			<act type="h" x="0.0" y="0.0" />
			<leg mode="car">
			</leg>
		</plan>

	</person>

<!-- ====================================================================== -->

	<person id="36" employed="yes">
		<plan selected="yes">
			<act type="h" x="0.0" y="0.0" end_time="06:00:00" />
			<leg mode="car">
			</leg>
			<act type="w" x="100000.0" y="100000.0" end_time="16:00:00" />
			<leg mode="car">
			</leg>
			<act type="h" x="0.0" y="0.0" />
			<leg mode="car">
			</leg>
		</plan>

	</person>

<!-- ====================================================================== -->

	<person id="37" employed="yes">
		<plan selected="yes">
			<act type="h" x="0.0" y="0.0" end_time="06:00:00" />
			<leg mode="car">
			</leg>
			<act type="w" x="100000.0" y="100000.0" end_time="16:00:00" />
			<leg mode="car">
			</leg>
			<act type="h" x="0.0" y="0.0" />
			<leg mode="car">
			</leg>
		</plan>

	</person>

<!-- ====================================================================== -->

	<person id="38" employed="yes">
		<plan selected="yes">
			<act type="h" x="0.0" y="0.0" end_time="06:00:00" />
			<leg mode="car">
			</leg>
			<act type="w" x="100000.0" y="100000.0" end_time="16:00:00" />
			<leg mode="car">
			</leg>
			<act type="h" x="0.0" y="0.0" />
			<leg mode="car">
			</leg>
		</plan>

	</person>

<!-- ====================================================================== -->

	<person id="39" employed="yes">
		<plan selected="yes">
			<act type="h" x="0.0" y="0.0" end_time="06:00:00" />
			<leg mode="car">
			</leg>
			<act type="w" x="100000.0" y="100000.0" end_time="16:00:00" />
			<leg mode="car">
			</leg>
			<act type="h" x="0.0" y="0.0" />
			<leg mode="car">
			</leg>
		</plan>

	</person>

<!-- ====================================================================== -->

	<person id="4" employed="yes">
		<plan selected="yes">
			<act type="h" x="0.0" y="0.0" end_time="06:00:00" />
			<leg mode="car">
			</leg>
			<act type="w" x="100000.0" y="100000.0" end_time="16:00:00" />
			<leg mode="car">
			</leg>
			<act type="h" x="0.0" y="0.0" />
			<leg mode="car">
			</leg>
		</plan>

	</person>

<!-- ====================================================================== -->

	<person id="40" employed="yes">
		<plan selected="yes">
			<act type="h" x="0.0" y="0.0" end_time="06:00:00" />
			<leg mode="car">
			</leg>
			<act type="w" x="100000.0" y="100000.0" end_time="16:00:00" />
			<leg mode="car">
			</leg>
			<act type="h" x="0.0" y="0.0" />
			<leg mode="car">
			</leg>
		</plan>

	</person>

<!-- ====================================================================== -->

	<person id="41" employed="yes">
		<plan selected="yes">
			<act type="h" x="0.0" y="0.0" end_time="06:00:00" />
			<leg mode="car">
			</leg>
			<act type="w" x="100000.0" y="100000.0" end_time="16:00:00" />
			<leg mode="car">
			</leg>
			<act type="h" x="0.0" y="0.0" />
			<leg mode="car">
			</leg>
		</plan>

	</person>

<!-- ====================================================================== -->

	<person id="42" employed="yes">
		<plan selected="yes">
			<act type="h" x="0.0" y="0.0" end_time="06:00:00" />
			<leg mode="car">
			</leg>
			<act type="w" x="100000.0" y="100000.0" end_time="16:00:00" />
			<leg mode="car">
			</leg>
			<act type="h" x="0.0" y="0.0" />
			<leg mode="car">
			</leg>
		</plan>

	</person>

<!-- ====================================================================== -->

	<person id="43" employed="yes">
		<plan selected="yes">
			<act type="h" x="0.0" y="0.0" end_time="06:00:00" />
			<leg mode="car">
			</leg>
			<act type="w" x="100000.0" y="100000.0" end_time="16:00:00" />
			<leg mode="car">
			</leg>
			<act type="h" x="0.0" y="0.0" />
			<leg mode="car">
			</leg>
		</plan>

	</person>

<!-- ====================================================================== -->

	<person id="44" employed="yes">
		<plan selected="yes">
			<act type="h" x="0.0" y="0.0" end_time="06:00:00" />
			<leg mode="car">
			</leg>
			<act type="w" x="100000.0" y="100000.0" end_time="16:00:00" />
			<leg mode="car">
			</leg>
			<act type="h" x="0.0" y="0.0" />
			<leg mode="car">
			</leg>
		</plan>

	</person>

<!-- ====================================================================== -->

	<person id="45" employed="yes">
		<plan selected="yes">
			<act type="h" x="0.0" y="0.0" end_time="06:00:00" />
			<leg mode="car">
			</leg>
			<act type="w" x="100000.0" y="100000.0" end_time="16:00:00" />
			<leg mode="car">
			</leg>
			<act type="h" x="0.0" y="0.0" />
			<leg mode="car">
			</leg>
		</plan>

	</person>

<!-- ====================================================================== -->

	<person id="46" employed="yes">
		<plan selected="yes">
			<act type="h" x="0.0" y="0.0" end_time="06:00:00" />
			<leg mode="car">
			</leg>
			<act type="w" x="100000.0" y="100000.0" end_time="16:00:00" />
			<leg mode="car">
			</leg>
			<act type="h" x="0.0" y="0.0" />
			<leg mode="car">
			</leg>
		</plan>

	</person>

<!-- ====================================================================== -->

	<person id="47" employed="yes">
		<plan selected="yes">
			<act type="h" x="0.0" y="0.0" end_time="06:00:00" />
			<leg mode="car">
			</leg>
			<act type="w" x="100000.0" y="100000.0" end_time="16:00:00" />
			<leg mode="car">
			</leg>
			<act type="h" x="0.0" y="0.0" />
			<leg mode="car">
			</leg>
		</plan>

	</person>

<!-- ====================================================================== -->

	<person id="48" employed="yes">
		<plan selected="yes">
			<act type="h" x="0.0" y="0.0" end_time="06:00:00" />
			<leg mode="car">
			</leg>
			<act type="w" x="100000.0" y="100000.0" end_time="16:00:00" />
			<leg mode="car">
			</leg>
			<act type="h" x="0.0" y="0.0" />
			<leg mode="car">
			</leg>
		</plan>

	</person>

<!-- ====================================================================== -->

	<person id="49" employed="yes">
		<plan selected="yes">
			<act type="h" x="0.0" y="0.0" end_time="06:00:00" />
			<leg mode="car">
			</leg>
			<act type="w" x="100000.0" y="100000.0" end_time="16:00:00" />
			<leg mode="car">
			</leg>
			<act type="h" x="0.0" y="0.0" />
			<leg mode="car">
			</leg>
		</plan>

	</person>

<!-- ====================================================================== -->

	<person id="5" employed="yes">
		<plan selected="yes">
			<act type="h" x="0.0" y="0.0" end_time="06:00:00" />
			<leg mode="car">
			</leg>
			<act type="w" x="100000.0" y="100000.0" end_time="16:00:00" />
			<leg mode="car">
			</leg>
			<act type="h" x="0.0" y="0.0" />
			<leg mode="car">
			</leg>
		</plan>

	</person>

<!-- ====================================================================== -->

	<person id="50" employed="yes">
		<plan selected="yes">
			<act type="h" x="0.0" y="0.0" end_time="06:00:00" />
			<leg mode="car">
			</leg>
			<act type="w" x="100000.0" y="100000.0" end_time="16:00:00" />
			<leg mode="car">
			</leg>
			<act type="h" x="0.0" y="0.0" />
			<leg mode="car">
			</leg>
		</plan>

	</person>

<!-- ====================================================================== -->

	<person id="51" employed="yes">
		<plan selected="yes">
			<act type="h" x="0.0" y="0.0" end_time="06:00:00" />
			<leg mode="car">
			</leg>
			<act type="w" x="100000.0" y="100000.0" end_time="16:00:00" />
			<leg mode="car">
			</leg>
			<act type="h" x="0.0" y="0.0" />
			<leg mode="car">
			</leg>
		</plan>

	</person>

<!-- ====================================================================== -->

	<person id="52" employed="yes">
		<plan selected="yes">
			<act type="h" x="0.0" y="0.0" end_time="06:00:00" />
			<leg mode="car">
			</leg>
			<act type="w" x="100000.0" y="100000.0" end_time="16:00:00" />
			<leg mode="car">
			</leg>
			<act type="h" x="0.0" y="0.0" />
			<leg mode="car">
			</leg>
		</plan>

	</person>

<!-- ====================================================================== -->

	<person id="53" employed="yes">
		<plan selected="yes">
			<act type="h" x="0.0" y="0.0" end_time="06:00:00" />
			<leg mode="car">
			</leg>
			<act type="w" x="100000.0" y="100000.0" end_time="16:00:00" />
			<leg mode="car">
			</leg>
			<act type="h" x="0.0" y="0.0" />
			<leg mode="car">
			</leg>
		</plan>

	</person>

<!-- ====================================================================== -->

	<person id="54" employed="yes">
		<plan selected="yes">
			<act type="h" x="0.0" y="0.0" end_time="06:00:00" />
			<leg mode="car">
			</leg>
			<act type="w" x="100000.0" y="100000.0" end_time="16:00:00" />
			<leg mode="car">
			</leg>
			<act type="h" x="0.0" y="0.0" />
			<leg mode="car">
			</leg>
		</plan>

	</person>

<!-- ====================================================================== -->

	<person id="55" employed="yes">
		<plan selected="yes">
			<act type="h" x="0.0" y="0.0" end_time="06:00:00" />
			<leg mode="car">
			</leg>
			<act type="w" x="100000.0" y="100000.0" end_time="16:00:00" />
			<leg mode="car">
			</leg>
			<act type="h" x="0.0" y="0.0" />
			<leg mode="car">
			</leg>
		</plan>

	</person>

<!-- ====================================================================== -->

	<person id="56" employed="yes">
		<plan selected="yes">
			<act type="h" x="0.0" y="0.0" end_time="06:00:00" />
			<leg mode="car">
			</leg>
			<act type="w" x="100000.0" y="100000.0" end_time="16:00:00" />
			<leg mode="car">
			</leg>
			<act type="h" x="0.0" y="0.0" />
			<leg mode="car">
			</leg>
		</plan>

	</person>

<!-- ====================================================================== -->

	<person id="57" employed="yes">
		<plan selected="yes">
			<act type="h" x="0.0" y="0.0" end_time="06:00:00" />
			<leg mode="car">
			</leg>
			<act type="w" x="100000.0" y="100000.0" end_time="16:00:00" />
			<leg mode="car">
			</leg>
			<act type="h" x="0.0" y="0.0" />
			<leg mode="car">
			</leg>
		</plan>

	</person>

<!-- ====================================================================== -->

	<person id="58" employed="yes">
		<plan selected="yes">
			<act type="h" x="0.0" y="0.0" end_time="06:00:00" />
			<leg mode="car">
			</leg>
			<act type="w" x="100000.0" y="100000.0" end_time="16:00:00" />
			<leg mode="car">
			</leg>
			<act type="h" x="0.0" y="0.0" />
			<leg mode="car">
			</leg>
		</plan>

	</person>

<!-- ====================================================================== -->

	<person id="59" employed="yes">
		<plan selected="yes">
			<act type="h" x="0.0" y="0.0" end_time="06:00:00" />
			<leg mode="car">
			</leg>
			<act type="w" x="100000.0" y="100000.0" end_time="16:00:00" />
			<leg mode="car">
			</leg>
			<act type="h" x="0.0" y="0.0" />
			<leg mode="car">
			</leg>
		</plan>

	</person>

<!-- ====================================================================== -->

	<person id="6" employed="yes">
		<plan selected="yes">
			<act type="h" x="0.0" y="0.0" end_time="06:00:00" />
			<leg mode="car">
			</leg>
			<act type="w" x="100000.0" y="100000.0" end_time="16:00:00" />
			<leg mode="car">
			</leg>
			<act type="h" x="0.0" y="0.0" />
			<leg mode="car">
			</leg>
		</plan>

	</person>

<!-- ====================================================================== -->

	<person id="60" employed="yes">
		<plan selected="yes">
			<act type="h" x="0.0" y="0.0" end_time="06:00:00" />
			<leg mode="car">
			</leg>
			<act type="w" x="100000.0" y="100000.0" end_time="16:00:00" />
			<leg mode="car">
			</leg>
			<act type="h" x="0.0" y="0.0" />
			<leg mode="car">
			</leg>
		</plan>

	</person>

<!-- ====================================================================== -->

	<person id="61" employed="yes">
		<plan selected="yes">
			<act type="h" x="0.0" y="0.0" end_time="06:00:00" />
			<leg mode="car">
			</leg>
			<act type="w" x="100000.0" y="100000.0" end_time="16:00:00" />
			<leg mode="car">
			</leg>
			<act type="h" x="0.0" y="0.0" />
			<leg mode="car">
			</leg>
		</plan>

	</person>

<!-- ====================================================================== -->

	<person id="62" employed="yes">
		<plan selected="yes">
			<act type="h" x="0.0" y="0.0" end_time="06:00:00" />
			<leg mode="car">
			</leg>
			<act type="w" x="100000.0" y="100000.0" end_time="16:00:00" />
			<leg mode="car">
			</leg>
			<act type="h" x="0.0" y="0.0" />
			<leg mode="car">
			</leg>
		</plan>

	</person>

<!-- ====================================================================== -->

	<person id="63" employed="yes">
		<plan selected="yes">
			<act type="h" x="0.0" y="0.0" end_time="06:00:00" />
			<leg mode="car">
			</leg>
			<act type="w" x="100000.0" y="100000.0" end_time="16:00:00" />
			<leg mode="car">
			</leg>
			<act type="h" x="0.0" y="0.0" />
			<leg mode="car">
			</leg>
		</plan>

	</person>

<!-- ====================================================================== -->

	<person id="64" employed="yes">
		<plan selected="yes">
			<act type="h" x="0.0" y="0.0" end_time="06:00:00" />
			<leg mode="car">
			</leg>
			<act type="w" x="100000.0" y="100000.0" end_time="16:00:00" />
			<leg mode="car">
			</leg>
			<act type="h" x="0.0" y="0.0" />
			<leg mode="car">
			</leg>
		</plan>

	</person>

<!-- ====================================================================== -->

	<person id="65" employed="yes">
		<plan selected="yes">
			<act type="h" x="0.0" y="0.0" end_time="06:00:00" />
			<leg mode="car">
			</leg>
			<act type="w" x="100000.0" y="100000.0" end_time="16:00:00" />
			<leg mode="car">
			</leg>
			<act type="h" x="0.0" y="0.0" />
			<leg mode="car">
			</leg>
		</plan>

	</person>

<!-- ====================================================================== -->

	<person id="66" employed="yes">
		<plan selected="yes">
			<act type="h" x="0.0" y="0.0" end_time="06:00:00" />
			<leg mode="car">
			</leg>
			<act type="w" x="100000.0" y="100000.0" end_time="16:00:00" />
			<leg mode="car">
			</leg>
			<act type="h" x="0.0" y="0.0" />
			<leg mode="car">
			</leg>
		</plan>

	</person>

<!-- ====================================================================== -->

	<person id="67" employed="yes">
		<plan selected="yes">
			<act type="h" x="0.0" y="0.0" end_time="06:00:00" />
			<leg mode="car">
			</leg>
			<act type="w" x="100000.0" y="100000.0" end_time="16:00:00" />
			<leg mode="car">
			</leg>
			<act type="h" x="0.0" y="0.0" />
			<leg mode="car">
			</leg>
		</plan>

	</person>

<!-- ====================================================================== -->

	<person id="68" employed="yes">
		<plan selected="yes">
			<act type="h" x="0.0" y="0.0" end_time="06:00:00" />
			<leg mode="car">
			</leg>
			<act type="w" x="100000.0" y="100000.0" end_time="16:00:00" />
			<leg mode="car">
			</leg>
			<act type="h" x="0.0" y="0.0" />
			<leg mode="car">
			</leg>
		</plan>

	</person>

<!-- ====================================================================== -->

	<person id="69" employed="yes">
		<plan selected="yes">
			<act type="h" x="0.0" y="0.0" end_time="06:00:00" />
			<leg mode="car">
			</leg>
			<act type="w" x="100000.0" y="100000.0" end_time="16:00:00" />
			<leg mode="car">
			</leg>
			<act type="h" x="0.0" y="0.0" />
			<leg mode="car">
			</leg>
		</plan>

	</person>

<!-- ====================================================================== -->

	<person id="7" employed="yes">
		<plan selected="yes">
			<act type="h" x="0.0" y="0.0" end_time="06:00:00" />
			<leg mode="car">
			</leg>
			<act type="w" x="100000.0" y="100000.0" end_time="16:00:00" />
			<leg mode="car">
			</leg>
			<act type="h" x="0.0" y="0.0" />
			<leg mode="car">
			</leg>
		</plan>

	</person>

<!-- ====================================================================== -->

	<person id="70" employed="yes">
		<plan selected="yes">
			<act type="h" x="0.0" y="0.0" end_time="06:00:00" />
			<leg mode="car">
			</leg>
			<act type="w" x="100000.0" y="100000.0" end_time="16:00:00" />
			<leg mode="car">
			</leg>
			<act type="h" x="0.0" y="0.0" />
			<leg mode="car">
			</leg>
		</plan>

	</person>

<!-- ====================================================================== -->

	<person id="71" employed="yes">
		<plan selected="yes">
			<act type="h" x="0.0" y="0.0" end_time="06:00:00" />
			<leg mode="car">
			</leg>
			<act type="w" x="100000.0" y="100000.0" end_time="16:00:00" />
			<leg mode="car">
			</leg>
			<act type="h" x="0.0" y="0.0" />
			<leg mode="car">
			</leg>
		</plan>

	</person>

<!-- ====================================================================== -->

	<person id="72" employed="yes">
		<plan selected="yes">
			<act type="h" x="0.0" y="0.0" end_time="06:00:00" />
			<leg mode="car">
			</leg>
			<act type="w" x="100000.0" y="100000.0" end_time="16:00:00" />
			<leg mode="car">
			</leg>
			<act type="h" x="0.0" y="0.0" />
			<leg mode="car">
			</leg>
		</plan>

	</person>

<!-- ====================================================================== -->

	<person id="73" employed="yes">
		<plan selected="yes">
			<act type="h" x="0.0" y="0.0" end_time="06:00:00" />
			<leg mode="car">
			</leg>
			<act type="w" x="100000.0" y="100000.0" end_time="16:00:00" />
			<leg mode="car">
			</leg>
			<act type="h" x="0.0" y="0.0" />
			<leg mode="car">
			</leg>
		</plan>

	</person>

<!-- ====================================================================== -->

	<person id="74" employed="yes">
		<plan selected="yes">
			<act type="h" x="0.0" y="0.0" end_time="06:00:00" />
			<leg mode="car">
			</leg>
			<act type="w" x="100000.0" y="100000.0" end_time="16:00:00" />
			<leg mode="car">
			</leg>
			<act type="h" x="0.0" y="0.0" />
			<leg mode="car">
			</leg>
		</plan>

	</person>

<!-- ====================================================================== -->

	<person id="75" employed="yes">
		<plan selected="yes">
			<act type="h" x="0.0" y="0.0" end_time="06:00:00" />
			<leg mode="car">
			</leg>
			<act type="w" x="100000.0" y="100000.0" end_time="16:00:00" />
			<leg mode="car">